%Chk=/home/rotations/zhangf/gen_ncaa_params/gaussian_output/3-methoxy-L-phenylalanine.chk
#B3LYP/6-31G(d) em=GD3BJ Opt=ModRedundant

scan rotamers

0 1
C    1.848200  1.041400  -1.651900
N    1.818400  1.642400  0.687700
C    1.149000  0.853300  -0.328000
C    -0.299800  1.306600  -0.451000
O    1.444800  0.467000  -2.635100
N    2.939800  1.863100  -1.738900
C    3.611700  2.043800  -3.011100
C    1.358700  1.630400  1.977200
O    1.916400  2.287800  2.823400
C    0.155200  0.796100  2.341400
C    -1.210300  0.158000  -0.146300
C    -0.675600  -1.086600  0.186200
C    -1.524000  -2.156800  0.470000
C    -2.907000  -1.982300  0.421400
C    -3.441700  -0.737700  0.089000
C    -2.593300  0.332500  -0.194900
O    -1.004600  -3.365900  0.792900
C    -2.024300  -4.296100  1.039200
H    2.625500  2.201900  0.443500
H    1.178200  -0.221700  -0.041500
H    -0.491900  2.132900  0.269500
H    -0.489400  1.665300  -1.487400
H    3.277700  2.344300  -0.915300
H    3.098500  1.438500  -3.791500
H    3.581100  3.119100  -3.296700
H    4.670500  1.712700  -2.921600
H    -0.217300  0.266400  1.436200
H    0.442400  0.049800  3.115500
H    -0.646700  1.456500  2.740900
H    0.415100  -1.224100  0.224600
H    -3.576000  -2.826300  0.645300
H    -4.532400  -0.600100  0.050800
H    -3.014900  1.314100  -0.457100
H    -1.574500  -5.279600  1.301900
H    -2.654800  -3.939500  1.884200
H    -2.652800  -4.407400  0.127300


